OPT_V9/8ts_w_storgae_myc_NEW_PARAM/powerflow_results_t8.txt
Pandapower Network Debug Info
==================================================

BUS:
       vm_pu  va_degree      p_mw    q_mvar
0   1.005364   0.239582 -0.002466 -0.000069
1   1.008296   0.374649 -0.001838  0.000079
2   1.011193   0.503113 -0.003241  0.000000
3   1.008081   0.355178 -0.004038 -0.000086
4   1.003311   0.301315 -0.002853  0.001251
5   1.006034   0.271051 -0.004614  0.001192
6   1.009650   0.334123 -0.003232 -0.001236
7   1.001667   0.077861 -0.002499 -0.000003
8   1.001043   0.060021 -0.003830 -0.000638
9   0.999959   0.001091  0.008704  0.009690
10  0.999955   0.001138  0.003784  0.004451
11  0.999952   0.001163  0.003128  0.003323
12  0.999976   0.002688  0.007795  0.005519
13  0.999974   0.002800  0.004080  0.007143
14  0.999974   0.002779  0.001121  0.000132
15  0.999982   0.000857  0.000000  0.000000
16  0.999982   0.000857  0.000000  0.000000
17  0.999980   0.002699  0.000000  0.000000
18  0.999981   0.002700  0.000000  0.000000
19  1.000000   0.000000 -0.004150 -0.022464
20  1.000000   0.000003  0.000000  0.000000
21  1.000000   0.000000  0.003931 -0.018423
22  1.000000   0.000002  0.000000  0.000000
--------------------------------------------------

LINE:
    p_from_mw   q_from_mvar   p_to_mw  q_to_mvar         pl_mw       ql_mvar  i_from_ka   i_to_ka      i_ka  vm_from_pu  va_from_degree  vm_to_pu  va_to_degree  loading_percent
0    0.004140  1.846397e-02 -0.004140  -0.018464  3.502289e-07  2.730793e-07   0.000728  0.000728  0.000728    1.000000        0.000003  0.999982      0.000857         0.316663
1   -0.003941  1.442333e-02  0.003942  -0.014423  6.013563e-07  4.688874e-07   0.000576  0.000576  0.000576    1.000000        0.000002  0.999980      0.002699         0.250219
2    0.015617  1.746469e-02 -0.015616  -0.017464  4.244697e-07  3.309660e-07   0.000902  0.000902  0.000902    0.999982        0.000857  0.999959      0.001091         0.392080
3    0.007795  5.519153e-03 -0.007795  -0.005519  3.154729e-08  2.459794e-08   0.000368  0.000368  0.000368    0.999980        0.002699  0.999976      0.002688         0.159836
4    0.005201  7.274944e-03 -0.005201  -0.007275  4.373018e-08  3.409714e-08   0.000344  0.000344  0.000344    0.999980        0.002699  0.999974      0.002800         0.149658
5   -0.011487 -9.017713e-07  0.011549   0.000049  6.171921e-05  4.812348e-05   0.016580  0.016580  0.016580    0.999982        0.000857  1.005364      0.239582         7.208891
6   -0.007788  6.463970e-07  0.007835   0.000036  4.706068e-05  3.669399e-05   0.011242  0.011242  0.011242    0.999981        0.002700  1.006034      0.271051         4.887659
7   -0.002495 -2.104478e-07  0.002499   0.000003  4.204591e-06  3.278389e-06   0.003601  0.003601  0.003601    0.999981        0.002700  1.001667      0.077861         1.565548
8   -0.006664  6.284170e-04  0.006672  -0.000622  7.704307e-06  6.007175e-06   0.009662  0.009662  0.009662    0.999981        0.002700  1.001043      0.060021         4.200810
9   -0.006912 -7.773970e-03  0.006912   0.007774  3.742442e-08  2.918044e-08   0.000400  0.000400  0.000400    0.999955        0.001138  0.999959      0.001091         0.174089
10  -0.003128 -3.322648e-03  0.003128   0.003323  1.018618e-08  7.942330e-09   0.000176  0.000176  0.000176    0.999952        0.001163  0.999955      0.001138         0.076373
11  -0.001121 -1.322907e-04  0.001121   0.000132  6.227699e-10  4.855840e-10   0.000043  0.000043  0.000043    0.999974        0.002779  0.999974      0.002800         0.018884
12   0.005070 -8.619280e-05 -0.005055   0.000098  1.496135e-05  1.166561e-05   0.007258  0.007258  0.007258    1.008296        0.374649  1.005364      0.239582         3.155831
13   0.004038  8.635105e-05 -0.004028  -0.000078  1.071995e-05  8.358520e-06   0.005783  0.005783  0.005783    1.008081        0.355178  1.005364      0.239582         2.514561
14   0.003241  1.991372e-09 -0.003232   0.000007  9.293323e-06  7.246157e-06   0.004626  0.004626  0.004626    1.011193        0.503113  1.008296      0.374649         2.011455
15  -0.002842  1.260511e-03  0.002853  -0.001251  1.173429e-05  9.149419e-06   0.004482  0.004482  0.004482    1.001043        0.060021  1.003311      0.301315         1.948851
16   0.003232  1.235585e-03 -0.003222  -0.001228  1.022414e-05  7.971934e-06   0.004946  0.004946  0.004946    1.009650        0.334123  1.006034      0.271051         2.150553
--------------------------------------------------

TRAFO:
    p_hv_mw  q_hv_mvar   p_lv_mw     q_lv_mvar    pl_mw  ql_mvar   i_hv_ka   i_lv_ka  vm_hv_pu  va_hv_degree  vm_lv_pu  va_lv_degree  loading_percent
0 -0.011477   0.000999  0.011487  9.017456e-07  0.00001    0.001  0.000443  0.016580  0.999982      0.000857  0.999982      0.000857         0.115207
1 -0.016937   0.001629  0.016947 -6.288529e-04  0.00001    0.001  0.000655  0.024478  0.999980      0.002699  0.999981      0.002700         0.170156
2  0.004150   0.022464 -0.004140 -1.846397e-02  0.00001    0.004  0.000188  0.000728  1.000000      0.000000  1.000000      0.000003         0.057110
3 -0.003931   0.018423  0.003941 -1.442333e-02  0.00001    0.004  0.000155  0.000576  1.000000      0.000000  1.000000      0.000002         0.047095
--------------------------------------------------
